LTspice 26.0.2 for Windows
Circuit: C:\users\thiago\Documents\UTN\2026\TC2\tareas_tc2\Laboratorio\archivos\Draft1.net
Start Time: Sat Jul 18 18:13:17 2026
solver = Normal
Maximum thread count: 4
tnom = 27
temp = 27
method = trap
.OP point found by inspection.
.OP point found by inspection.
Total elapsed time: 0.083 seconds.

Files loaded:
C:\users\thiago\Documents\UTN\2026\TC2\tareas_tc2\Laboratorio\archivos\Draft1.net

